converters/autotest/IEEE-13-cyme-network.glm

// 
// Settings from 'config.csv'
// 
// GLM_NOMINAL_VOLTAGE found in network MDB is used
#define GLM_NOMINAL_VOLTAGE=2.4018 kV

// 
// Modules
// 
module powerflow
{
	solver_method "NR";
}
module generators;

// 
// Objects
// 
object node
{
	name "ND_611";
	phases "CN";
	nominal_voltage "${GLM_NOMINAL_VOLTAGE}";
	bustype "PQ";
}
object node
{
	name "ND_632";
	phases "ABCN";
	nominal_voltage "${GLM_NOMINAL_VOLTAGE}";
	bustype "PQ";
}
object node
{
	name "ND_633";
	phases "ABCN";
	nominal_voltage "${GLM_NOMINAL_VOLTAGE}";
	bustype "PQ";
}
object node
{
	name "ND_634";
	phases "ABCN";
	nominal_voltage "0.2771kV";
	bustype "PQ";
}
object node
{
	name "ND_645";
	phases "BCN";
	nominal_voltage "${GLM_NOMINAL_VOLTAGE}";
	bustype "PQ";
}
object node
{
	name "ND_646";
	phases "BCN";
	nominal_voltage "${GLM_NOMINAL_VOLTAGE}";
	bustype "PQ";
}
object node
{
	name "ND_650";
	phases "ABCN";
	nominal_voltage "${GLM_NOMINAL_VOLTAGE}";
	bustype "SWING";
}
object node
{
	name "ND_652";
	phases "AN";
	nominal_voltage "${GLM_NOMINAL_VOLTAGE}";
	bustype "PQ";
}
object node
{
	name "ND_671";
	phases "ABCN";
	nominal_voltage "${GLM_NOMINAL_VOLTAGE}";
	bustype "PQ";
}
object node
{
	name "ND_675";
	phases "ABCN";
	nominal_voltage "${GLM_NOMINAL_VOLTAGE}";
	bustype "PQ";
}
object node
{
	name "ND_680";
	phases "ABCN";
	nominal_voltage "${GLM_NOMINAL_VOLTAGE}";
	bustype "PQ";
}
object node
{
	name "ND_684";
	phases "ACN";
	nominal_voltage "${GLM_NOMINAL_VOLTAGE}";
	bustype "PQ";
}
object node
{
	name "ND_692";
	phases "ABCN";
	nominal_voltage "${GLM_NOMINAL_VOLTAGE}";
	bustype "PQ";
}
object node
{
	name "ND_7";
	phases "ABCN";
	nominal_voltage "${GLM_NOMINAL_VOLTAGE}";
	bustype "PQ";
}
object node
{
	name "ND_RG60";
	phases "ABCN";
	nominal_voltage "${GLM_NOMINAL_VOLTAGE}";
	bustype "PQ";
}
object overhead_line_conductor
{
	name "OC_4_0";
	geometric_mean_radius "0.25 cm";
	resistance "0.36785 Ohm/km";
	diameter "1.43 cm";
	rating.summer.continuous "340.0 A";
	rating.winter.continuous "340.0 A";
	rating.summer.emergency "340.0 A";
	rating.winter.emergency "340.0 A";
}
object line_spacing
{
	name "LG_500";
	distance_AB "0.76 m";
	distance_AC "2.13 m";
	distance_BC "1.37 m";
	distance_AN "1.72 m";
	distance_BN "1.30 m";
	distance_CN "1.52 m";
	distance_AE "8.53 m";
	distance_BE "8.53 m";
	distance_CE "8.53 m";
	distance_NE "7.32 m";
}
object line_configuration
{
	name "LC_4_0_4_0_4_0_4_0_500";
	conductor_A "OC_4_0";
	conductor_B "OC_4_0";
	conductor_C "OC_4_0";
	conductor_N "OC_4_0";
	spacing "LG_500";
}
object overhead_line
{
	name "OL_LK_L632_633";
	phases "ABCN";
	from "ND_632";
	to "ND_633";
	length "152.40 m";
	configuration "LC_4_0_4_0_4_0_4_0_500";
}
object overhead_line_conductor
{
	name "OC_NONE";
	geometric_mean_radius "0.01 cm";
	resistance "0.00001 Ohm/km";
	diameter "0.00 cm";
	rating.summer.continuous "1000.0 A";
	rating.winter.continuous "1000.0 A";
	rating.summer.emergency "1000.0 A";
	rating.winter.emergency "1000.0 A";
}
object overhead_line_conductor
{
	name "OC_1_0";
	geometric_mean_radius "0.14 cm";
	resistance "0.69594 Ohm/km";
	diameter "1.01 cm";
	rating.summer.continuous "230.0 A";
	rating.winter.continuous "230.0 A";
	rating.summer.emergency "230.0 A";
	rating.winter.emergency "230.0 A";
}
object line_spacing
{
	name "LG_505";
	distance_AB "2.13 m";
	distance_AC "8.53 m";
	distance_BC "8.80 m";
	distance_AN "1.72 m";
	distance_BN "1.52 m";
	distance_CN "7.42 m";
	distance_AE "8.53 m";
	distance_BE "8.53 m";
	distance_CE "0.00 m";
	distance_NE "7.32 m";
}
object line_configuration
{
	name "LC_NONE_1_0_1_0_1_0_505";
	conductor_A "OC_NONE";
	conductor_B "OC_1_0";
	conductor_C "OC_1_0";
	conductor_N "OC_1_0";
	spacing "LG_505";
}
object overhead_line
{
	name "OL_LK_L632_645";
	phases "BCN";
	from "ND_632";
	to "ND_645";
	length "152.40 m";
	configuration "LC_NONE_1_0_1_0_1_0_505";
}
object overhead_line_conductor
{
	name "OC_556_500";
	geometric_mean_radius "0.95 cm";
	resistance "0.11557 Ohm/km";
	diameter "2.35 cm";
	rating.summer.continuous "730.0 A";
	rating.winter.continuous "730.0 A";
	rating.summer.emergency "730.0 A";
	rating.winter.emergency "730.0 A";
}
object line_configuration
{
	name "LC_556_500_556_500_556_500_4_0_500";
	conductor_A "OC_556_500";
	conductor_B "OC_556_500";
	conductor_C "OC_556_500";
	conductor_N "OC_4_0";
	spacing "LG_500";
}
object overhead_line
{
	name "OL_LK_L632_671";
	phases "ABCN";
	from "ND_632";
	to "ND_671";
	length "609.60 m";
	configuration "LC_556_500_556_500_556_500_4_0_500";
}
object overhead_line
{
	name "OL_LK_L645_646";
	phases "BCN";
	from "ND_645";
	to "ND_646";
	length "91.44 m";
	configuration "LC_NONE_1_0_1_0_1_0_505";
}
object overhead_line
{
	name "OL_LK_L650_632";
	phases "ABCN";
	from "ND_RG60";
	to "ND_632";
	length "609.60 m";
	configuration "LC_556_500_556_500_556_500_4_0_500";
}
object overhead_line
{
	name "OL_LK_L671_680";
	phases "ABCN";
	from "ND_671";
	to "ND_680";
	length "304.80 m";
	configuration "LC_556_500_556_500_556_500_4_0_500";
}
object line_configuration
{
	name "LC_1_0_NONE_1_0_1_0_505";
	conductor_A "OC_1_0";
	conductor_B "OC_NONE";
	conductor_C "OC_1_0";
	conductor_N "OC_1_0";
	spacing "LG_505";
}
object overhead_line
{
	name "OL_LK_L671_684";
	phases "ACN";
	from "ND_671";
	to "ND_684";
	length "91.44 m";
	configuration "LC_1_0_NONE_1_0_1_0_505";
}
object line_spacing
{
	name "LG_510";
	distance_AB "8.84 m";
	distance_AC "8.84 m";
	distance_BC "0.00 m";
	distance_AN "1.53 m";
	distance_BN "7.32 m";
	distance_CN "7.32 m";
	distance_AE "8.84 m";
	distance_BE "0.00 m";
	distance_CE "0.00 m";
	distance_NE "7.32 m";
}
object line_configuration
{
	name "LC_NONE_NONE_1_0_1_0_510";
	conductor_A "OC_NONE";
	conductor_B "OC_NONE";
	conductor_C "OC_1_0";
	conductor_N "OC_1_0";
	spacing "LG_510";
}
object overhead_line
{
	name "OL_LK_L684_611";
	phases "CN";
	from "ND_684";
	to "ND_611";
	length "91.44 m";
	configuration "LC_NONE_NONE_1_0_1_0_510";
}
object overhead_line_conductor
{
	name "OC_DEFAULT";
	geometric_mean_radius "0.88 cm";
	resistance "0.12180 Ohm/km";
	diameter "2.18 cm";
	rating.summer.continuous "1000.0 A";
	rating.winter.continuous "1000.0 A";
	rating.summer.emergency "1000.0 A";
	rating.winter.emergency "1000.0 A";
}
object line_spacing
{
	name "LG_DEFAULT";
	distance_AB "11.16 m";
	distance_AC "21.50 m";
	distance_BC "11.16 m";
	distance_AN "13.64 m";
	distance_BN "24.70 m";
	distance_CN "34.28 m";
	distance_AE "36.75 m";
	distance_BE "26.00 m";
	distance_CE "15.25 m";
	distance_NE "49.00 m";
}
object line_configuration
{
	name "LC_LINE607";
	conductor_A "OC_DEFAULT";
	conductor_B "OC_DEFAULT";
	conductor_C "OC_DEFAULT";
	conductor_N "OC_DEFAULT";
	spacing "LG_DEFAULT";
}
object overhead_line
{
	name "OL_LK_L684_652";
	phases "AN";
	from "ND_684";
	to "ND_652";
	length "243.84 m";
	configuration "LC_LINE607";
}
object line_configuration
{
	name "LC_LINE606";
	conductor_A "OC_DEFAULT";
	conductor_B "OC_DEFAULT";
	conductor_C "OC_DEFAULT";
	conductor_N "OC_DEFAULT";
	spacing "LG_DEFAULT";
}
object overhead_line
{
	name "OL_LK_L692_675";
	phases "ABCN";
	from "ND_692";
	to "ND_675";
	length "152.40 m";
	configuration "LC_LINE606";
}
object transformer_configuration
{
	name "TC_500_0010kVA_2_4018kV_0_2771kV_R0_0088_X0_015930";
	connect_type "WYE_WYE";
	install_type "PADMOUNT";
	power_rating "500.0010kVA";
	primary_voltage "2.4018kV";
	secondary_voltage "0.2771kV";
	resistance 0.008762067508208264;
	reactance 0.015930314936673445;
}
object transformer
{
	name "TF_LK_L633_634_XFM_1";
	phases "ABCN";
	from "ND_633";
	to "ND_634";
	configuration "TC_500_0010kVA_2_4018kV_0_2771kV_R0_0088_X0_015930";
}
object load
{
	name "LD_LOAD652";
	parent "ND_652";
	phases "A";
	nominal_voltage "${GLM_NOMINAL_VOLTAGE}";
	constant_impedance_A "31.0507+20.8622j";
}
object load
{
	name "LD_LOAD611";
	parent "ND_611";
	phases "C";
	nominal_voltage "${GLM_NOMINAL_VOLTAGE}";
	constant_current_C "-6.5442+77.9517j";
}
object load
{
	name "LD_LOAD692";
	parent "ND_692";
	phases "C";
	nominal_voltage "${GLM_NOMINAL_VOLTAGE}";
	constant_current_C "-17.2413+51.8673j";
}
object load
{
	name "LD_LOAD645";
	parent "ND_645";
	phases "B";
	nominal_voltage "${GLM_NOMINAL_VOLTAGE}";
	constant_power_B "170000.0000+125000.0000j";
}
object load
{
	name "LD_LOAD646";
	parent "ND_646";
	phases "B";
	nominal_voltage "${GLM_NOMINAL_VOLTAGE}";
	constant_impedance_B "56.6004+32.4837j";
}
object load
{
	name "LD_LOAD671";
	parent "ND_671";
	phases "ABC";
	nominal_voltage "${GLM_NOMINAL_VOLTAGE}";
	constant_power_A "385000.0000+220000.0000j";
	constant_power_B "385000.0000+220000.0000j";
	constant_power_C "385000.0000+220000.0000j";
}
object load
{
	name "LD_LOAD675";
	parent "ND_675";
	phases "ABC";
	nominal_voltage "${GLM_NOMINAL_VOLTAGE}";
	constant_power_A "485000.0000+190000.0000j";
	constant_power_B "68000.0000+60000.0000j";
	constant_power_C "290000.0000+212000.0000j";
}
object load
{
	name "LD_LOAD634";
	parent "ND_634";
	phases "ABC";
	nominal_voltage "0.2771kV";
	constant_power_A "160000.0000+110000.0000j";
	constant_power_B "120000.0000+90000.0000j";
	constant_power_C "120000.0000+90000.0000j";
}
object load
{
	name "LD_L632_671_1";
	parent "ND_671";
	phases "ABC";
	nominal_voltage "${GLM_NOMINAL_VOLTAGE}";
	constant_power_A "17000.0000+10000.0000j";
	constant_power_B "66000.0000+38000.0000j";
	constant_power_C "117000.0000+68000.0000j";
}
object regulator_configuration
{
	name "RC_650REG_2V_30s";
	connect_type "WYE_WYE";
	band_center "${GLM_NOMINAL_VOLTAGE}";
	band_width "2V";
	time_delay "30s";
	raise_taps "16";
	lower_taps "16";
	current_transducer_ratio "700";
	power_transducer_ratio "20";
	regulation "0.0833%";
	tap_pos_A "10";
	tap_pos_B "8";
	tap_pos_C "11";
	Control "OUTPUT_VOLTAGE";
}
object regulator
{
	name "RG_LK_650REG";
	phases "ABC";
	from "ND_7";
	to "ND_RG60";
	configuration "RC_650REG_2V_30s";
	sense_node "ND_RG60";
}
object capacitor
{
	name "CA_L611CAP";
	parent "ND_611";
	nominal_voltage "${GLM_NOMINAL_VOLTAGE}";
	phases "CN";
	capacitor_A "0 kVA";
	capacitor_B "0 kVA";
	capacitor_C "100.0 kVA";
	switchA "OPEN";
	switchB "OPEN";
	switchC "CLOSED";
	control "MANUAL";
}
object capacitor
{
	name "CA_L675CAP";
	parent "ND_675";
	nominal_voltage "${GLM_NOMINAL_VOLTAGE}";
	phases "ABCN";
	capacitor_A "200.0 kVA";
	capacitor_B "200.0 kVA";
	capacitor_C "200.0 kVA";
	switchA "CLOSED";
	switchB "CLOSED";
	switchC "CLOSED";
	control "MANUAL";
}
object switch
{
	name "SW_LK_296";
	phases "ABC";
	from "ND_650";
	to "ND_7";
	operating_mode "BANKED";
	phase_A_state "CLOSED";
	phase_B_state "CLOSED";
	phase_C_state "CLOSED";
}
object switch
{
	name "SW_LK_L671_692_SW_1";
	phases "ABC";
	from "ND_671";
	to "ND_692";
	operating_mode "BANKED";
	phase_A_state "CLOSED";
	phase_B_state "CLOSED";
	phase_C_state "CLOSED";
}

// 
// Assumptions
// 
modify TC_500_0010kVA_2_4018kV_0_2771kV_R0_0088_X0_015930.connect_type "WYE_WYE"; // transformer 'L633_634_XFM_1' does not specify connection type
modify TC_500_0010kVA_2_4018kV_0_2771kV_R0_0088_X0_015930.install_type "PADMOUNT"; // transformer 'L633_634_XFM_1' does not specify install type
modify RC_650REG_2V_30s.connect_type "WYE_WYE"; // regulator '650REG' does not specify connection type
modify RC_650REG_2V_30s.Control "OUTPUT_VOLTAGE"; // regulator '650REG' does not specify control type
modify RC_650REG_2V_30s.time_delay "30s"; // regulator '650REG' does not specify time delay
modify RC_650REG_2V_30s.band_center "${GLM_NOMINAL_VOLTAGE}"; // regulator '650REG' does not specify band center
modify RG_LK_650REG.sense_node "ND_RG60"; // regulator '650REG' does not specify sense node
modify CA_L611CAP.control "MANUAL"; // capacitor L611CAP does not specify a control strategy, valid options are 'CURRENT', 'VARVOLT', 'VOLT', 'VAR', or 'MANUAL'
modify CA_L675CAP.control "MANUAL"; // capacitor L675CAP does not specify a control strategy, valid options are 'CURRENT', 'VARVOLT', 'VOLT', 'VAR', or 'MANUAL'

// 
// Modifications from 'modify.csv'
// 
